
 *******************************************************************************

         NASA-GLENN CHEMICAL EQUILIBRIUM PROGRAM CEA2, FEBRUARY 5, 2004
                   BY  BONNIE MCBRIDE AND SANFORD GORDON
      REFS: NASA RP-1311, PART I, 1994 AND NASA RP-1311, PART II, 1996

 *******************************************************************************



  
 ### CEA analysis performed on Wed 20-May-2026 15:49:36
  
 # Problem Type: "Rocket" (Infinite Area Combustor)
  
 prob case = _______________4581 ro equilibrium
  
 # Pressure (3 values):
 p,bar= 6, 8, 10
 # Supersonic Area Ratio (3 values):
 supar= 60, 80, 100
  
 # Oxidizer/Fuel Wt. ratio (3 values):
 o/f = 1.6, 1.8, 2
  
 # You selected the following fuels and oxidizers:
 reac
 fuel C2H8N2(L),UDMH    wt%=100.0000  t,k= 298.150
 oxid N2O4(L)           wt%=100.0000  t,k= 298.150
  
 # You selected these options for output:
 # short version of output
 output short
 # Proportions of any products will be expressed as Mole Fractions.
 # Heat will be expressed as siunits
 output siunits
 # Plot parameters:
 output plot ae ivac mw p mach t gam cf
  
  
 # Input prepared by this script:/var/www/sites/cearun/cgi-bin/CEARUN/prepareInpu
 tFile.cgi
  
 ### IMPORTANT:  The following line is the end of your CEA input file!
 end





              THEORETICAL ROCKET PERFORMANCE ASSUMING EQUILIBRIUM

           COMPOSITION DURING EXPANSION FROM INFINITE AREA COMBUSTOR

 Pin =    87.0 PSIA
 CASE = _______________

             REACTANT                    WT FRACTION      ENERGY      TEMP
                                          (SEE NOTE)     KJ/KG-MOL      K  
 FUEL        C2H8N2(L),UDMH               1.0000000     48900.000    298.150
 OXIDANT     N2O4(L)                      1.0000000    -17549.000    298.150

 O/F=    1.60000  %FUEL= 38.461538  R,EQ.RATIO= 1.913760  PHI,EQ.RATIO= 1.913760

                 CHAMBER   THROAT     EXIT     EXIT     EXIT
 Pinf/P            1.0000   1.7787   984.06  1401.10  1830.47
 P, BAR            6.0000   3.3733  0.00610  0.00428  0.00328
 T, K             2782.81  2541.36   733.25   697.67   676.40
 RHO, KG/CU M    4.9839-1 3.0848-1 1.9467-3 1.4433-3 1.1452-3
 H, KJ/KG          195.58  -465.80 -4417.49 -4525.14 -4603.02
 U, KJ/KG        -1008.30 -1559.35 -4730.70 -4821.85 -4889.24
 G, KJ/KG        -36348.4 -33839.1 -14046.6 -13687.0 -13485.5
 S, KJ/(KG)(K)    13.1320  13.1320  13.1320  13.1320  13.1320

 M, (1/n)          19.219   19.323   19.465   19.551   19.649
 (dLV/dLP)t      -1.00533 -1.00260 -1.00422 -1.01156 -1.01847
 (dLV/dLT)p        1.1122   1.0590   1.0785   1.2235   1.3643
 Cp, KJ/(KG)(K)    3.2200   2.7438   2.9340   4.1571   5.3553
 GAMMAs            1.1917   1.2096   1.1978   1.1649   1.1476
 SON VEL,M/SEC     1197.8   1150.1    612.5    587.9    573.1
 MACH NUMBER        0.000    1.000    4.959    5.226    5.405

 PERFORMANCE PARAMETERS

 Ae/At                      1.0000   60.000   80.000   100.00
 CSTAR, M/SEC               1691.2   1691.2   1691.2   1691.2
 CF                         0.6801   1.7961   1.8169   1.8318
 Ivac, M/SEC                2100.9   3140.6   3169.3   3190.3
 Isp, M/SEC                 1150.1   3037.5   3072.7   3097.9


 MOLE FRACTIONS

 CH4              0.00000  0.00000  0.00110  0.00329  0.00583
 *CO              0.21656  0.21556  0.08378  0.07143  0.06283
 *CO2             0.02944  0.03176  0.16427  0.17551  0.18284
 *H               0.01569  0.00826  0.00000  0.00000  0.00000
 *H2              0.24827  0.25374  0.38766  0.39331  0.39419
 H2O              0.23365  0.23585  0.10843  0.10057  0.09715
 NH3              0.00000  0.00000  0.00000  0.00001  0.00001
 *NO              0.00035  0.00011  0.00000  0.00000  0.00000
 *N2              0.25137  0.25283  0.25476  0.25587  0.25716
 *O               0.00016  0.00004  0.00000  0.00000  0.00000
 *OH              0.00445  0.00183  0.00000  0.00000  0.00000
 *O2              0.00006  0.00001  0.00000  0.00000  0.00000

  * THERMODYNAMIC PROPERTIES FITTED TO 20000.K

 NOTE. WEIGHT FRACTION OF FUEL IN TOTAL FUELS AND OF OXIDANT IN TOTAL OXIDANTS










              THEORETICAL ROCKET PERFORMANCE ASSUMING EQUILIBRIUM

           COMPOSITION DURING EXPANSION FROM INFINITE AREA COMBUSTOR

 Pin =   116.0 PSIA
 CASE = _______________

             REACTANT                    WT FRACTION      ENERGY      TEMP
                                          (SEE NOTE)     KJ/KG-MOL      K  
 FUEL        C2H8N2(L),UDMH               1.0000000     48900.000    298.150
 OXIDANT     N2O4(L)                      1.0000000    -17549.000    298.150

 O/F=    1.60000  %FUEL= 38.461538  R,EQ.RATIO= 1.913760  PHI,EQ.RATIO= 1.913760

                 CHAMBER   THROAT     EXIT     EXIT     EXIT
 Pinf/P            1.0000   1.7807   982.17  1394.78  1820.12
 P, BAR            8.0000   4.4925  0.00815  0.00574  0.00440
 T, K             2794.48  2546.72   735.93   702.63   682.28
 RHO, KG/CU M    6.6242-1 4.1020-1 2.5941-3 1.9234-3 1.5262-3
 H, KJ/KG          195.58  -468.70 -4418.05 -4525.31 -4603.30
 U, KJ/KG        -1012.12 -1563.92 -4732.03 -4823.52 -4891.30
 G, KJ/KG        -36154.0 -33595.6 -13990.7 -13664.8 -13478.2
 S, KJ/(KG)(K)    13.0076  13.0076  13.0076  13.0076  13.0076

 M, (1/n)          19.239   19.334   19.488   19.590   19.697
 (dLV/dLP)t      -1.00481 -1.00230 -1.00629 -1.01460 -1.02149
 (dLV/dLT)p        1.1010   1.0522   1.1168   1.2804   1.4204
 Cp, KJ/(KG)(K)    3.1126   2.6758   3.2309   4.5989   5.7791
 GAMMAs            1.1954   1.2131   1.1882   1.1583   1.1440
 SON VEL,M/SEC     1201.6   1152.6    610.8    587.7    574.0
 MACH NUMBER        0.000    1.000    4.973    5.228    5.397

 PERFORMANCE PARAMETERS

 Ae/At                      1.0000   60.000   80.000   100.00
 CSTAR, M/SEC               1692.0   1692.0   1692.0   1692.0
 CF                         0.6812   1.7953   1.8160   1.8310
 Ivac, M/SEC                2102.8   3141.0   3169.8   3191.0
 Isp, M/SEC                 1152.6   3037.6   3072.7   3098.0


 MOLE FRACTIONS

 CH4              0.00000  0.00000  0.00168  0.00432  0.00707
 *CO              0.21686  0.21575  0.08395  0.07189  0.06340
 *CO2             0.02939  0.03172  0.16381  0.17455  0.18164
 *H               0.01418  0.00733  0.00000  0.00000  0.00000
 *H2              0.24893  0.25417  0.38572  0.38974  0.38981
 H2O              0.23443  0.23627  0.10978  0.10312  0.10027
 NH3              0.00000  0.00000  0.00001  0.00001  0.00001
 *NO              0.00032  0.00010  0.00000  0.00000  0.00000
 *N2              0.25163  0.25299  0.25505  0.25639  0.25779
 *O               0.00013  0.00003  0.00000  0.00000  0.00000
 *OH              0.00407  0.00164  0.00000  0.00000  0.00000
 *O2              0.00005  0.00001  0.00000  0.00000  0.00000

  * THERMODYNAMIC PROPERTIES FITTED TO 20000.K

 NOTE. WEIGHT FRACTION OF FUEL IN TOTAL FUELS AND OF OXIDANT IN TOTAL OXIDANTS










              THEORETICAL ROCKET PERFORMANCE ASSUMING EQUILIBRIUM

           COMPOSITION DURING EXPANSION FROM INFINITE AREA COMBUSTOR

 Pin =   145.0 PSIA
 CASE = _______________

             REACTANT                    WT FRACTION      ENERGY      TEMP
                                          (SEE NOTE)     KJ/KG-MOL      K  
 FUEL        C2H8N2(L),UDMH               1.0000000     48900.000    298.150
 OXIDANT     N2O4(L)                      1.0000000    -17549.000    298.150

 O/F=    1.60000  %FUEL= 38.461538  R,EQ.RATIO= 1.913760  PHI,EQ.RATIO= 1.913760

                 CHAMBER   THROAT     EXIT     EXIT     EXIT
 Pinf/P            1.0000   1.7823   979.96  1389.20  1811.59
 P, BAR            10.000   5.6108  0.01020  0.00720  0.00552
 T, K             2802.98  2550.50   738.69   706.92   687.14
 RHO, KG/CU M    8.2612-1 5.1176-1 3.2415-3 2.4034-3 1.9070-3
 H, KJ/KG          195.58  -470.81 -4418.26 -4525.37 -4603.52
 U, KJ/KG        -1014.90 -1567.20 -4733.07 -4824.87 -4892.98
 G, KJ/KG        -35994.4 -33400.9 -13955.6 -13652.6 -13475.3
 S, KJ/(KG)(K)    12.9112  12.9112  12.9112  12.9112  12.9112

 M, (1/n)          19.253   19.342   19.510   19.625   19.737
 (dLV/dLP)t      -1.00444 -1.00210 -1.00824 -1.01705 -1.02381
 (dLV/dLT)p        1.0928   1.0474   1.1525   1.3255   1.4625
 Cp, KJ/(KG)(K)    3.0356   2.6278   3.5044   4.9412   6.0882
 GAMMAs            1.1983   1.2156   1.1810   1.1542   1.1418
 SON VEL,M/SEC     1204.4   1154.5    609.8    588.0    574.9
 MACH NUMBER        0.000    1.000    4.982    5.226    5.389

 PERFORMANCE PARAMETERS

 Ae/At                      1.0000   60.000   80.000   100.00
 CSTAR, M/SEC               1692.6   1692.6   1692.6   1692.6
 CF                         0.6821   1.7947   1.8154   1.8304
 Ivac, M/SEC                2104.2   3141.3   3170.2   3191.5
 Isp, M/SEC                 1154.5   3037.7   3072.8   3098.1


 MOLE FRACTIONS

 CH4              0.00000  0.00000  0.00224  0.00520  0.00810
 *CO              0.21708  0.21588  0.08416  0.07228  0.06387
 *CO2             0.02935  0.03169  0.16331  0.17371  0.18066
 *H               0.01308  0.00667  0.00000  0.00000  0.00000
 *H2              0.24941  0.25448  0.38379  0.38665  0.38621
 H2O              0.23501  0.23657  0.11115  0.10531  0.10284
 NH3              0.00000  0.00000  0.00001  0.00001  0.00001
 *NO              0.00030  0.00009  0.00000  0.00000  0.00000
 *N2              0.25183  0.25310  0.25534  0.25684  0.25832
 *O               0.00011  0.00002  0.00000  0.00000  0.00000
 *OH              0.00378  0.00149  0.00000  0.00000  0.00000
 *O2              0.00004  0.00001  0.00000  0.00000  0.00000

  * THERMODYNAMIC PROPERTIES FITTED TO 20000.K

 NOTE. WEIGHT FRACTION OF FUEL IN TOTAL FUELS AND OF OXIDANT IN TOTAL OXIDANTS










              THEORETICAL ROCKET PERFORMANCE ASSUMING EQUILIBRIUM

           COMPOSITION DURING EXPANSION FROM INFINITE AREA COMBUSTOR

 Pin =    87.0 PSIA
 CASE = _______________

             REACTANT                    WT FRACTION      ENERGY      TEMP
                                          (SEE NOTE)     KJ/KG-MOL      K  
 FUEL        C2H8N2(L),UDMH               1.0000000     48900.000    298.150
 OXIDANT     N2O4(L)                      1.0000000    -17549.000    298.150

 O/F=    1.80000  %FUEL= 35.714286  R,EQ.RATIO= 1.701120  PHI,EQ.RATIO= 1.701120

                 CHAMBER   THROAT     EXIT     EXIT     EXIT
 Pinf/P            1.0000   1.7602   950.40  1374.20  1825.78
 P, BAR            6.0000   3.4087  0.00631  0.00437  0.00329
 T, K             2942.69  2729.51   830.50   775.31   735.93
 RHO, KG/CU M    4.9495-1 3.0562-1 1.8818-3 1.3942-3 1.1057-3
 H, KJ/KG          167.98  -489.98 -4652.52 -4772.06 -4858.75
 U, KJ/KG        -1044.27 -1605.34 -4988.01 -5085.23 -5155.97
 G, KJ/KG        -37633.4 -35552.9 -15321.0 -14731.6 -14312.3
 S, KJ/(KG)(K)    12.8458  12.8458  12.8458  12.8458  12.8458

 M, (1/n)          20.183   20.347   20.583   20.584   20.587
 (dLV/dLP)t      -1.01022 -1.00590 -1.00002 -1.00012 -1.00041
 (dLV/dLT)p        1.2100   1.1293   1.0004   1.0020   1.0074
 Cp, KJ/(KG)(K)    3.9401   3.2917   2.1497   2.1882   2.2402
 GAMMAs            1.1667   1.1798   1.2316   1.2273   1.2233
 SON VEL,M/SEC     1189.2   1147.1    642.8    620.0    603.0
 MACH NUMBER        0.000    1.000    4.830    5.070    5.258

 PERFORMANCE PARAMETERS

 Ae/At                      1.0000   60.000   80.000   100.00
 CSTAR, M/SEC               1711.4   1711.4   1711.4   1711.4
 CF                         0.6703   1.8143   1.8366   1.8527
 Ivac, M/SEC                2119.4   3213.0   3242.9   3264.5
 Isp, M/SEC                 1147.1   3105.0   3143.3   3170.7


 MOLE FRACTIONS

 CH4              0.00000  0.00000  0.00001  0.00003  0.00010
 *CO              0.20086  0.20000  0.08557  0.07196  0.06163
 *CO2             0.03902  0.04184  0.15905  0.17265  0.18295
 *H               0.02361  0.01521  0.00000  0.00000  0.00000
 *H2              0.19144  0.19532  0.31770  0.33124  0.34134
 H2O              0.27077  0.27762  0.17154  0.15798  0.14781
 *NO              0.00118  0.00053  0.00000  0.00000  0.00000
 *N2              0.26036  0.26281  0.26612  0.26613  0.26617
 *O               0.00080  0.00028  0.00000  0.00000  0.00000
 *OH              0.01150  0.00622  0.00000  0.00000  0.00000
 *O2              0.00045  0.00016  0.00000  0.00000  0.00000

  * THERMODYNAMIC PROPERTIES FITTED TO 20000.K

 NOTE. WEIGHT FRACTION OF FUEL IN TOTAL FUELS AND OF OXIDANT IN TOTAL OXIDANTS










              THEORETICAL ROCKET PERFORMANCE ASSUMING EQUILIBRIUM

           COMPOSITION DURING EXPANSION FROM INFINITE AREA COMBUSTOR

 Pin =   116.0 PSIA
 CASE = _______________

             REACTANT                    WT FRACTION      ENERGY      TEMP
                                          (SEE NOTE)     KJ/KG-MOL      K  
 FUEL        C2H8N2(L),UDMH               1.0000000     48900.000    298.150
 OXIDANT     N2O4(L)                      1.0000000    -17549.000    298.150

 O/F=    1.80000  %FUEL= 35.714286  R,EQ.RATIO= 1.701120  PHI,EQ.RATIO= 1.701120

                 CHAMBER   THROAT     EXIT     EXIT     EXIT
 Pinf/P            1.0000   1.7626   953.27  1378.13  1830.22
 P, BAR            8.0000   4.5388  0.00839  0.00580  0.00437
 T, K             2960.89  2740.40   829.21   774.23   735.26
 RHO, KG/CU M    6.5691-1 4.0577-1 2.5054-3 1.8562-3 1.4722-3
 H, KJ/KG          167.98  -494.03 -4655.36 -4774.67 -4861.12
 U, KJ/KG        -1049.84 -1612.59 -4990.32 -5087.39 -5158.02
 G, KJ/KG        -37516.5 -35372.3 -15209.0 -14628.7 -14219.1
 S, KJ/(KG)(K)    12.7274  12.7274  12.7274  12.7274  12.7274

 M, (1/n)          20.215   20.370   20.583   20.585   20.590
 (dLV/dLP)t      -1.00937 -1.00532 -1.00005 -1.00022 -1.00075
 (dLV/dLT)p        1.1916   1.1161   1.0007   1.0037   1.0134
 Cp, KJ/(KG)(K)    3.7728   3.1677   2.1527   2.2005   2.2837
 GAMMAs            1.1702   1.1837   1.2314   1.2266   1.2208
 SON VEL,M/SEC     1193.8   1150.7    642.2    619.3    602.0
 MACH NUMBER        0.000    1.000    4.836    5.077    5.268

 PERFORMANCE PARAMETERS

 Ae/At                      1.0000   60.000   80.000   100.00
 CSTAR, M/SEC               1713.4   1713.4   1713.4   1713.4
 CF                         0.6716   1.8127   1.8350   1.8510
 Ivac, M/SEC                2122.8   3213.8   3243.6   3265.1
 Isp, M/SEC                 1150.7   3105.9   3144.1   3171.5


 MOLE FRACTIONS

 CH4              0.00000  0.00000  0.00001  0.00005  0.00019
 *CO              0.20125  0.20030  0.08526  0.07166  0.06138
 *CO2             0.03901  0.04180  0.15936  0.17294  0.18315
 *H               0.02169  0.01374  0.00000  0.00000  0.00000
 *H2              0.19195  0.19578  0.31800  0.33146  0.34131
 H2O              0.27235  0.27871  0.17124  0.15774  0.14775
 *NO              0.00112  0.00049  0.00000  0.00000  0.00000
 *N2              0.26080  0.26313  0.26612  0.26615  0.26622
 *O               0.00069  0.00023  0.00000  0.00000  0.00000
 *OH              0.01075  0.00568  0.00000  0.00000  0.00000
 *O2              0.00039  0.00013  0.00000  0.00000  0.00000

  * THERMODYNAMIC PROPERTIES FITTED TO 20000.K

 NOTE. WEIGHT FRACTION OF FUEL IN TOTAL FUELS AND OF OXIDANT IN TOTAL OXIDANTS










              THEORETICAL ROCKET PERFORMANCE ASSUMING EQUILIBRIUM

           COMPOSITION DURING EXPANSION FROM INFINITE AREA COMBUSTOR

 Pin =   145.0 PSIA
 CASE = _______________

             REACTANT                    WT FRACTION      ENERGY      TEMP
                                          (SEE NOTE)     KJ/KG-MOL      K  
 FUEL        C2H8N2(L),UDMH               1.0000000     48900.000    298.150
 OXIDANT     N2O4(L)                      1.0000000    -17549.000    298.150

 O/F=    1.80000  %FUEL= 35.714286  R,EQ.RATIO= 1.701120  PHI,EQ.RATIO= 1.701120

                 CHAMBER   THROAT     EXIT     EXIT     EXIT
 Pinf/P            1.0000   1.7644   955.31  1380.83  1832.97
 P, BAR            10.000   5.6676  0.01047  0.00724  0.00546
 T, K             2974.44  2748.29   828.30   773.55   735.03
 RHO, KG/CU M    8.1836-1 5.0565-1 3.1286-3 2.3180-3 1.8385-3
 H, KJ/KG          167.98  -497.05 -4657.39 -4776.51 -4862.76
 U, KJ/KG        -1053.98 -1617.92 -4991.98 -5088.94 -5159.51
 G, KJ/KG        -37416.2 -35223.6 -15123.5 -14550.8 -14150.4
 S, KJ/(KG)(K)    12.6357  12.6357  12.6357  12.6357  12.6357

 M, (1/n)          20.239   20.387   20.583   20.586   20.595
 (dLV/dLP)t      -1.00874 -1.00489 -1.00007 -1.00034 -1.00117
 (dLV/dLT)p        1.1781   1.1065   1.0012   1.0060   1.0210
 Cp, KJ/(KG)(K)    3.6510   3.0789   2.1561   2.2164   2.3379
 GAMMAs            1.1729   1.1867   1.2311   1.2256   1.2178
 SON VEL,M/SEC     1197.2   1153.3    641.8    618.8    601.1
 MACH NUMBER        0.000    1.000    4.840    5.082    5.277

 PERFORMANCE PARAMETERS

 Ae/At                      1.0000   60.000   80.000   100.00
 CSTAR, M/SEC               1714.8   1714.8   1714.8   1714.8
 CF                         0.6726   1.8116   1.8339   1.8498
 Ivac, M/SEC                2125.2   3214.3   3244.0   3265.5
 Isp, M/SEC                 1153.3   3106.6   3144.7   3172.0


 MOLE FRACTIONS

 CH4              0.00000  0.00000  0.00002  0.00009  0.00029
 *CO              0.20153  0.20052  0.08504  0.07146  0.06123
 *CO2             0.03900  0.04178  0.15958  0.17313  0.18325
 *H               0.02026  0.01267  0.00000  0.00000  0.00000
 *H2              0.19233  0.19612  0.31820  0.33156  0.34113
 H2O              0.27353  0.27950  0.17104  0.15760  0.14783
 *NO              0.00107  0.00046  0.00000  0.00000  0.00000
 *N2              0.26113  0.26336  0.26613  0.26616  0.26627
 *O               0.00060  0.00020  0.00000  0.00000  0.00000
 *OH              0.01017  0.00528  0.00000  0.00000  0.00000
 *O2              0.00034  0.00011  0.00000  0.00000  0.00000

  * THERMODYNAMIC PROPERTIES FITTED TO 20000.K

 NOTE. WEIGHT FRACTION OF FUEL IN TOTAL FUELS AND OF OXIDANT IN TOTAL OXIDANTS










              THEORETICAL ROCKET PERFORMANCE ASSUMING EQUILIBRIUM

           COMPOSITION DURING EXPANSION FROM INFINITE AREA COMBUSTOR

 Pin =    87.0 PSIA
 CASE = _______________

             REACTANT                    WT FRACTION      ENERGY      TEMP
                                          (SEE NOTE)     KJ/KG-MOL      K  
 FUEL        C2H8N2(L),UDMH               1.0000000     48900.000    298.150
 OXIDANT     N2O4(L)                      1.0000000    -17549.000    298.150

 O/F=    2.00000  %FUEL= 33.333333  R,EQ.RATIO= 1.531008  PHI,EQ.RATIO= 1.531008

                 CHAMBER   THROAT     EXIT     EXIT     EXIT
 Pinf/P            1.0000   1.7449   901.19  1306.24  1739.23
 P, BAR            6.0000   3.4386  0.00666  0.00459  0.00345
 T, K             3048.96  2863.37   941.66   877.41   831.24
 RHO, KG/CU M    4.9791-1 3.0704-1 1.8458-3 1.3667-3 1.0834-3
 H, KJ/KG          144.07  -502.95 -4829.39 -4958.65 -5052.31
 U, KJ/KG        -1060.97 -1622.86 -5190.10 -5294.75 -5370.73
 G, KJ/KG        -38213.2 -36525.3 -16675.9 -15996.8 -15509.7
 S, KJ/(KG)(K)    12.5804  12.5804  12.5804  12.5804  12.5804

 M, (1/n)          21.037   21.258   21.706   21.706   21.706
 (dLV/dLP)t      -1.01687 -1.01117 -1.00000 -1.00000 -1.00000
 (dLV/dLT)p        1.3424   1.2403   1.0000   1.0000   1.0000
 Cp, KJ/(KG)(K)    4.8744   4.1275   2.0012   2.0221   2.0351
 GAMMAs            1.1484   1.1555   1.2367   1.2337   1.2319
 SON VEL,M/SEC     1176.4   1137.6    667.9    643.9    626.3
 MACH NUMBER        0.000    1.000    4.722    4.961    5.147

 PERFORMANCE PARAMETERS

 Ae/At                      1.0000   60.000   80.000   100.00
 CSTAR, M/SEC               1717.8   1717.8   1717.8   1717.8
 CF                         0.6622   1.8360   1.8597   1.8767
 Ivac, M/SEC                2122.0   3268.2   3299.8   3322.6
 Isp, M/SEC                 1137.6   3153.9   3194.6   3223.8


 MOLE FRACTIONS

 *CO              0.18362  0.18204  0.08700  0.07463  0.06497
 *CO2             0.04974  0.05377  0.15378  0.16615  0.17581
 *H               0.02857  0.02104  0.00000  0.00000  0.00000
 *H2              0.14567  0.14647  0.24704  0.25941  0.26907
 H2O              0.29594  0.30751  0.23452  0.22215  0.21249
 *NO              0.00281  0.00161  0.00000  0.00000  0.00000
 *N2              0.26770  0.27113  0.27766  0.27766  0.27766
 *O               0.00238  0.00117  0.00000  0.00000  0.00000
 *OH              0.02165  0.01427  0.00000  0.00000  0.00000
 *O2              0.00191  0.00098  0.00000  0.00000  0.00000

  * THERMODYNAMIC PROPERTIES FITTED TO 20000.K

 NOTE. WEIGHT FRACTION OF FUEL IN TOTAL FUELS AND OF OXIDANT IN TOTAL OXIDANTS










              THEORETICAL ROCKET PERFORMANCE ASSUMING EQUILIBRIUM

           COMPOSITION DURING EXPANSION FROM INFINITE AREA COMBUSTOR

 Pin =   116.0 PSIA
 CASE = _______________

             REACTANT                    WT FRACTION      ENERGY      TEMP
                                          (SEE NOTE)     KJ/KG-MOL      K  
 FUEL        C2H8N2(L),UDMH               1.0000000     48900.000    298.150
 OXIDANT     N2O4(L)                      1.0000000    -17549.000    298.150

 O/F=    2.00000  %FUEL= 33.333333  R,EQ.RATIO= 1.531008  PHI,EQ.RATIO= 1.531008

                 CHAMBER   THROAT     EXIT     EXIT     EXIT
 Pinf/P            1.0000   1.7471   905.74  1312.70  1747.72
 P, BAR            8.0000   4.5790  0.00883  0.00609  0.00458
 T, K             3073.02  2880.49   939.17   875.13   829.11
 RHO, KG/CU M    6.6006-1 4.0713-1 2.4552-3 1.8180-3 1.4413-3
 H, KJ/KG          144.07  -507.69 -4834.38 -4963.27 -5056.67
 U, KJ/KG        -1067.94 -1632.39 -5194.14 -5298.49 -5374.26
 G, KJ/KG        -38166.8 -36418.3 -16542.9 -15873.3 -15393.0
 S, KJ/(KG)(K)    12.4668  12.4668  12.4668  12.4668  12.4668

 M, (1/n)          21.081   21.295   21.706   21.706   21.706
 (dLV/dLP)t      -1.01570 -1.01022 -1.00000 -1.00000 -1.00001
 (dLV/dLT)p        1.3167   1.2189   1.0000   1.0000   1.0001
 Cp, KJ/(KG)(K)    4.6479   3.9354   2.0020   2.0229   2.0358
 GAMMAs            1.1513   1.1590   1.2366   1.2336   1.2318
 SON VEL,M/SEC     1181.3   1141.7    667.0    643.1    625.5
 MACH NUMBER        0.000    1.000    4.731    4.970    5.156

 PERFORMANCE PARAMETERS

 Ae/At                      1.0000   60.000   80.000   100.00
 CSTAR, M/SEC               1721.1   1721.1   1721.1   1721.1
 CF                         0.6634   1.8334   1.8570   1.8739
 Ivac, M/SEC                2126.8   3269.5   3300.9   3323.6
 Isp, M/SEC                 1141.7   3155.5   3196.0   3225.1


 MOLE FRACTIONS

 *CO              0.18396  0.18235  0.08654  0.07417  0.06451
 *CO2             0.04989  0.05387  0.15424  0.16661  0.17627
 *H               0.02657  0.01931  0.00000  0.00000  0.00000
 *H2              0.14573  0.14660  0.24750  0.25988  0.26953
 H2O              0.29836  0.30949  0.23406  0.22168  0.21203
 *NO              0.00273  0.00153  0.00000  0.00000  0.00000
 *N2              0.26830  0.27163  0.27766  0.27766  0.27766
 *O               0.00210  0.00100  0.00000  0.00000  0.00000
 *OH              0.02064  0.01336  0.00000  0.00000  0.00000
 *O2              0.00170  0.00084  0.00000  0.00000  0.00000

  * THERMODYNAMIC PROPERTIES FITTED TO 20000.K

 NOTE. WEIGHT FRACTION OF FUEL IN TOTAL FUELS AND OF OXIDANT IN TOTAL OXIDANTS










              THEORETICAL ROCKET PERFORMANCE ASSUMING EQUILIBRIUM

           COMPOSITION DURING EXPANSION FROM INFINITE AREA COMBUSTOR

 Pin =   145.0 PSIA
 CASE = _______________

             REACTANT                    WT FRACTION      ENERGY      TEMP
                                          (SEE NOTE)     KJ/KG-MOL      K  
 FUEL        C2H8N2(L),UDMH               1.0000000     48900.000    298.150
 OXIDANT     N2O4(L)                      1.0000000    -17549.000    298.150

 O/F=    2.00000  %FUEL= 33.333333  R,EQ.RATIO= 1.531008  PHI,EQ.RATIO= 1.531008

                 CHAMBER   THROAT     EXIT     EXIT     EXIT
 Pinf/P            1.0000   1.7488   909.06  1317.42  1753.93
 P, BAR            10.000   5.7182  0.01100  0.00759  0.00570
 T, K             3091.26  2893.23   937.36   873.47   827.56
 RHO, KG/CU M    8.2151-1 5.0682-1 3.0636-3 2.2686-3 1.7986-3
 H, KJ/KG          144.07  -511.29 -4838.01 -4966.63 -5059.84
 U, KJ/KG        -1073.20 -1639.54 -5197.07 -5301.21 -5376.83
 G, KJ/KG        -38122.3 -36326.2 -16441.5 -15779.2 -15304.1
 S, KJ/(KG)(K)    12.3789  12.3789  12.3789  12.3789  12.3789

 M, (1/n)          21.115   21.321   21.706   21.706   21.706
 (dLV/dLP)t      -1.01482 -1.00952 -1.00000 -1.00000 -1.00001
 (dLV/dLT)p        1.2976   1.2032   1.0000   1.0000   1.0001
 Cp, KJ/(KG)(K)    4.4806   3.7955   2.0026   2.0235   2.0365
 GAMMAs            1.1536   1.1617   1.2365   1.2335   1.2317
 SON VEL,M/SEC     1185.0   1144.9    666.3    642.4    624.9
 MACH NUMBER        0.000    1.000    4.737    4.977    5.163

 PERFORMANCE PARAMETERS

 Ae/At                      1.0000   60.000   80.000   100.00
 CSTAR, M/SEC               1723.4   1723.4   1723.4   1723.4
 CF                         0.6643   1.8316   1.8551   1.8719
 Ivac, M/SEC                2130.3   3270.4   3301.7   3324.4
 Isp, M/SEC                 1144.9   3156.6   3197.1   3226.1


 MOLE FRACTIONS

 *CO              0.18420  0.18257  0.08621  0.07383  0.06418
 *CO2             0.05002  0.05394  0.15457  0.16695  0.17660
 *H               0.02507  0.01803  0.00000  0.00000  0.00000
 *H2              0.14578  0.14671  0.24783  0.26021  0.26986
 H2O              0.30021  0.31097  0.23373  0.22135  0.21170
 *NO              0.00266  0.00146  0.00000  0.00000  0.00000
 *N2              0.26876  0.27201  0.27766  0.27766  0.27766
 *O               0.00190  0.00088  0.00000  0.00000  0.00000
 *OH              0.01984  0.01266  0.00000  0.00000  0.00000
 *O2              0.00154  0.00075  0.00000  0.00000  0.00000

  * THERMODYNAMIC PROPERTIES FITTED TO 20000.K

 NOTE. WEIGHT FRACTION OF FUEL IN TOTAL FUELS AND OF OXIDANT IN TOTAL OXIDANTS



